Header
  CHECK KEYWORDS Warn
  Mesh DB "." "mesh3"
  Include Path ""
  Results Directory "res"
End

Simulation
  Max Output Level = 5
  Coordinate System = Cartesian
  Coordinate Mapping(3) = 1 2 3
  Simulation Type = Steady state
  Steady State Max Iterations = 1
  Output Intervals(1) = 1
  Solver Input File = case.sif
  Post File = case.vtu
End

Constants
  Gravity(4) = 0 -1 0 9.82
  Stefan Boltzmann = 5.670374419e-08
  Permittivity of Vacuum = 8.85418781e-12
  Permeability of Vacuum = 1.25663706e-6
  Boltzmann Constant = 1.380649e-23
  Unit Charge = 1.6021766e-19
End

Body 1
  Target Bodies(1) = 1
  Name = "Core"
  Equation = 1
  Material = 3
End

Body 2
  Target Bodies(1) = 2
  Name = "Linker Coil"
  Equation = 1
  Material = 2
  Body Force = 1
End

Body 3
  Target Bodies(1) = 3
  Name = "rechter Coil"
  Equation = 1
  Material = 2
  Body Force = 2
End

Body 4
  Target Bodies(1) = 4
  Name = "Air1"
  Equation = 1
  Material = 1
End

Solver 1
element="p:2"
  Equation = MgDyn2D
  Procedure = "MagnetoDynamics2D" "MagnetoDynamics2D"
  Variable = Potential
  Exec Solver = Always
  Stabilize = True
  Optimize Bandwidth = True
  Steady State Convergence Tolerance = 1.0e-7
  Nonlinear System Convergence Tolerance = 1.0e-9
  Nonlinear System Max Iterations = 20
  Nonlinear System Newton After Iterations = 3
  Nonlinear System Newton After Tolerance = 1.0e-3
  Nonlinear System Relaxation Factor = 1
  Linear System Solver = Iterative
  Linear System Iterative Method = BiCGStab
  Linear System Max Iterations = 500
  Linear System Convergence Tolerance = 1.0e-10
  BiCGstabl polynomial degree = 2
  Linear System Preconditioning = ILU0
  Linear System ILUT Tolerance = 1.0e-3
  Linear System Abort Not Converged = False
  Linear System Residual Output = 10
  Linear System Precondition Recompute = 1
End

Solver 2
element="p:2"
  Equation = MgDynPost
  Potential Variable = String "Potential"
  Calculate Magnetic Field Strength = True
  Procedure = "MagnetoDynamics" "MagnetoDynamicsCalcFields"
  Calculate Current Density = True
  Exec Solver = Before Saving
  Stabilize = True
  Optimize Bandwidth = True
  Steady State Convergence Tolerance = 1.0e-5
  Nonlinear System Convergence Tolerance = 1.0e-7
  Nonlinear System Max Iterations = 20
  Nonlinear System Newton After Iterations = 3
  Nonlinear System Newton After Tolerance = 1.0e-3
  Nonlinear System Relaxation Factor = 1
  Linear System Solver = Iterative
  Linear System Iterative Method = BiCGStab
  Linear System Max Iterations = 500
  Linear System Convergence Tolerance = 1.0e-10
  BiCGstabl polynomial degree = 2
  Linear System Preconditioning = ILU0
  Linear System ILUT Tolerance = 1.0e-3
  Linear System Abort Not Converged = False
  Linear System Residual Output = 10
  Linear System Precondition Recompute = 1
End

Equation 1
  Name = "MgDyn2D"
  Active Solvers(2) = 1 2 
End

Material 1
  Name = "Air (room temperature)"
  Heat Conductivity = 0.0257
  Relative Permeability = 1.00000037
  Relative Permittivity = 1.00059
  Viscosity = 1.983e-5
  Sound speed = 343.0
  Heat Capacity = 1005.0
  Density = 1.205
  Heat expansion Coefficient = 3.43e-3
End

Material 2
  Name = "Copper (generic)"
  Relative Permeability = 0.999994
  Youngs modulus = 115.0e9
  Electric Conductivity = 59.59e6
  Heat Capacity = 385.0
  Density = 8960.0
  Sound speed = 3810.0
  Poisson ratio = 0.34
  Heat expansion Coefficient = 16.5e-6
  Heat Conductivity = 401.0
End

Material 3
  Name = "Iron"
     include el_steel_M800.txt
   End
End

Body Force 1
  Name = "Linker Coil"
  Calculate Potential = True
  Current Density = -5e6
End

Body Force 2
  Name = "Rechter Coil"
  Current Density = 5e6
  Calculate Potential = True
End

Boundary Condition 1
  Target Boundaries(1) = 1 
  Name = "BoundaryCondition 1"
  Potential = 0
End


